[TITLE]

[OPTIONS]
FLOW_UNITS           LPS
INFILTRATION         CURVE_NUMBER
FLOW_ROUTING         DYNWAVE
START_DATE           10/28/2011
START_TIME           00:00:00
REPORT_START_DATE    10/28/2011
REPORT_START_TIME    00:00:00
END_DATE             10/28/2011
END_TIME             06:00:00
SWEEP_START          01/01
SWEEP_END            12/31
DRY_DAYS             0
REPORT_STEP          00:01:00
WET_STEP             00:01:00
DRY_STEP             00:01:00
ROUTING_STEP         0:00:01 
ALLOW_PONDING        NO
INERTIAL_DAMPING     PARTIAL
VARIABLE_STEP        0.75
LENGTHENING_STEP     0
MIN_SURFAREA         0
NORMAL_FLOW_LIMITED  SLOPE
SKIP_STEADY_STATE    NO
FORCE_MAIN_EQUATION  H-W
LINK_OFFSETS         DEPTH
MIN_SLOPE            0

[EVAPORATION]
;;Type       Parameters
;;---------- ----------
CONSTANT     0.0
DRY_ONLY     NO

[RAINGAGES]
;;               Rain      Time   Snow   Data      
;;Name           Type      Intrvl Catch  Source    
;;-------------- --------- ------ ------ ----------
Gage1            VOLUME    0:03   1.0    TIMESERIES ABM10yrs2hrs    

[SUBCATCHMENTS]
;;                                                 Total    Pcnt.             Pcnt.    Curb     Snow    
;;Name           Raingage         Outlet           Area     Imperv   Width    Slope    Length   Pack    
;;-------------- ---------------- ---------------- -------- -------- -------- -------- -------- --------
A2               Gage1            J4               96.9     40.80    1000     4.13     0                        
A1               Gage1            J1               33.8     29.24    1000     4.13     0                        
A3               Gage1            J3               50.7     32.17    1000     4.13     0                        
A4               Gage1            J10              30.0     25.17    1000     4.13     0                        
A5               Gage1            J9               25.5     10.00    1000     4.13     0                        
C1               Gage1            J16              17.9     10.00    1000     3.90     0                        
B2               Gage1            J13              27.3     38.66    1000     3.35     0                        
B3               Gage1            J15              15.4     47.24    1000     3.35     0                        
E1               Gage1            J8               34.9     0        1000     1.86     0                        
E2               Gage1            J12              12.1     0        1000     1.86     0                        
D6               Gage1            J30              13.1     47.79    1000     2.22     0                        
D1               Gage1            J33              6.66     50.09    1000     2.22     0                        
D2               Gage1            J40              28.1     50.26    1000     2.22     0                        
D3               Gage1            J41              19.8     49.68    1000     2.22     0                        
D4               Gage1            J37              31.1     46.99    1000     2.22     0                        
D5               Gage1            J43              26.3     45.44    1000     2.22     0                        
I2               Gage1            J48              14.3     36.25    1000     0.49     0                        
I1               Gage1            J47              59.2     36.25    1000     0.49     0                        
L                Gage1            J49              65.7     30.7     1000     0.38     0                        
J                Gage1            J56              15.3     33.62    1000     4.00     0                        
G1               Gage1            J55              44.5     45.81    1000     3.41     0                        
G2               Gage1            J57              27.0     44.93    1000     3.41     0                        
H                Gage1            J52              62.7     46.24    1000     3.06     0                        
F                Gage1            J50              37.7     44.76    1000     1.89     0                        
E3               Gage1            J29              40.2     46.36    1000     1.86     0                        
G3               Gage1            J56              2.7      46.08    1000     3.41     0                        
C2D              Gage1            J20              13.95    64.24    1000     3.90     0                        
C2C              Gage1            J21              43.23    64.24    1000     3.90     0                        
C2A              Gage1            J17              48.83    64.24    1000     3.90     0                        
C2B              Gage1            J27              33.48    64.24    1000     3.90     0                        
B1A              Gage1            J14              65.31    58.72    1000     3.35     0                        
B1B              Gage1            J13              27.99    58.72    1000     3.35     0                        

[SUBAREAS]
;;Subcatchment   N-Imperv   N-Perv     S-Imperv   S-Perv     PctZero    RouteTo    PctRouted 
;;-------------- ---------- ---------- ---------- ---------- ---------- ---------- ----------
A2               0.01       0.1        0.05       0.05       25         OUTLET    
A1               0.01       0.1        0.05       0.05       25         OUTLET    
A3               0.01       0.1        0.05       0.05       25         OUTLET    
A4               0.01       0.1        0.05       0.05       25         OUTLET    
A5               0.01       0.1        0.05       0.05       25         OUTLET    
C1               0.01       0.1        0.05       0.05       25         OUTLET    
B2               0.01       0.1        0.05       0.05       25         OUTLET    
B3               0.01       0.1        0.05       0.05       25         OUTLET    
E1               0.01       0.1        0.05       0.05       25         OUTLET    
E2               0.01       0.1        0.05       0.05       25         OUTLET    
D6               0.01       0.1        0.05       0.05       25         OUTLET    
D1               0.01       0.1        0.05       0.05       25         OUTLET    
D2               0.01       0.1        0.05       0.05       25         OUTLET    
D3               0.01       0.1        0.05       0.05       25         OUTLET    
D4               0.01       0.1        0.05       0.05       25         OUTLET    
D5               0.01       0.1        0.05       0.05       25         OUTLET    
I2               0.01       0.1        0.05       0.05       25         OUTLET    
I1               0.01       0.1        0.05       0.05       25         OUTLET    
L                0.01       0.1        0.05       0.05       25         OUTLET    
J                0.01       0.1        0.05       0.05       25         OUTLET    
G1               0.01       0.1        0.05       0.05       25         OUTLET    
G2               0.01       0.1        0.05       0.05       25         OUTLET    
H                0.01       0.1        0.05       0.05       25         OUTLET    
F                0.01       0.1        0.05       0.05       25         OUTLET    
E3               0.01       0.1        0.05       0.05       25         OUTLET    
G3               0.01       0.1        0.05       0.05       25         OUTLET    
C2D              0.01       0.1        0.05       0.05       25         OUTLET    
C2C              0.01       0.1        0.05       0.05       25         OUTLET    
C2A              0.01       0.1        0.05       0.05       25         OUTLET    
C2B              0.01       0.1        0.05       0.05       25         OUTLET    
B1A              0.01       0.1        0.05       0.05       25         OUTLET    
B1B              0.01       0.1        0.05       0.05       25         OUTLET    

[INFILTRATION]
;;Subcatchment   CurveNum   HydCon     DryTime   
;;-------------- ---------- ---------- ----------
A2               90         0.5        7         
A1               90         0.5        7         
A3               90         0.5        7         
A4               90         0.5        7         
A5               90         0.5        7         
C1               90         0.5        7         
B2               90         0.5        7         
B3               88         0.5        7         
E1               70         0.5        7         
E2               70         0.5        7         
D6               95         0.5        7         
D1               94         0.5        7         
D2               93         0.5        7         
D3               93         0.5        7         
D4               94         0.5        7         
D5               90         0.5        7         
I2               91         0.5        7         
I1               91         0.5        7         
L                92         0.5        7         
J                92         0.5        7         
G1               91         0.5        7         
G2               92         0.5        7         
H                92         0.5        7         
F                91         0.5        7         
E3               94         0.5        7         
G3               92         0.5        7         
C2D              83         0.5        7         
C2C              83         0.5        7         
C2A              83         0.5        7         
C2B              83         0.5        7         
B1A              80         0.5        7         
B1B              80         0.5        7         

[JUNCTIONS]
;;               Invert     Max.       Init.      Surcharge  Ponded    
;;Name           Elev.      Depth      Depth      Depth      Area      
;;-------------- ---------- ---------- ---------- ---------- ----------
J1               0          0          0          0          0         
J2               45.633     1.8        0          0          0         
J3               36.437     1.8        0          0          0         
J4               52.853     1.8        0          0          0         
J5               47.381     1.8        0          0          0         
J6               41.909     1.8        0          0          0         
J7               29.589     2          0          0          0         
J8               23.459     3          0          0          0         
J9               37.689     2          0          0          0         
J10              32.424     2          0          0          0         
J11              27.159     2          0          0          0         
J12              15.649     3.5        0          0          0         
J13              36.979     2          0          0          0         
J14              29.495     2.5        0          0          0         
J15              21.319     2.5        0          0          0         
J16              56.676     2.5        0          0          0         
J17              37.208     2.5        0          0          0         
J18              35.808     2.5        0          0          0         
J19              27.438     2.5        0          0          0         
J20              32.948     1.4        0          0          0         
J21              24.438     3          0          0          0         
J22              27.638     2          0          0          0         
J23              21.448     3          0          0          0         
J24              20.148     3          0          0          0         
J25              17.988     3          0          0          0         
J26              16.818     3          0          0          0         
J27              25.843     1.8        0          0          0         
J28              24.243     1.9        0          0          0         
J29              14.658     3.5        0          0          0         
J30              28.24      1.8        0          0          0         
J31              25.01      2          0          0          0         
J32              19.29      2.5        0          0          0         
J33              38.89      2          0          0          0         
J34              30.61      2          0          0          0         
J35              21.41      2          0          0          0         
J36              21.21      2.2        0          0          0         
J37              15.09      2.5        0          0          0         
J38              12.12      2.55       0          0          0         
J39              11.02      2.55       0          0          0         
J40              0          0          0          0          0         
J41              0          0          0          0          0         
J42              10.42      2.4        0          0          0         
J43              9.94       2.2        0          0          0         
J44              9.16       2.2        0          0          0         
J45              8.64       2.7        0          0          0         
J46              8.29       2.7        0          0          0         
J47              7.682      2.7        0          0          0         
J48              6.452      2.7        0          0          0         
J50              16.492     2          0          0          0         
J51              15.228     2          0          0          0         
J52              13.336     1.9        0          0          0         
J53              12.4       2.3        0          0          0         
J54              9.6        3.2        0          0          0         
J55              27.018     2          0          0          0         
J56              12.018     2.2        0          0          0         
J57              25.788     1.8        0          0          0         
J58              11.258     2.5        0          0          0         
J59              8.29       2.5        0          0          0         
J60              7.9        3.2        0          0          0         
J49              5          3          0          0          0         
J63              12.328     3.2        0          0          0         

[OUTFALLS]
;;               Invert     Outfall    Stage/Table      Tide
;;Name           Elev.      Type       Time Series      Gate
;;-------------- ---------- ---------- ---------------- ----
Out2             4.5        FREE                        NO

[CONDUITS]
;;               Inlet            Outlet                      Manning    Inlet      Outlet     Init.      Max.      
;;Name           Node             Node             Length     N          Offset     Offset     Flow       Flow      
;;-------------- ---------------- ---------------- ---------- ---------- ---------- ---------- ---------- ----------
T4-1             J9               J10              117        0.02       0          0          0          0         
T4-2             J10              J11              117        0.02       0          0          0          0         
T4-3             J11              J8               60         0.02       0          0          0          0         
T1-1             J1               J2               242        0.02       0          0          0          0         
T1-2             J2               J3               400        0.02       0          0          0          0         
T2-1             J4               J5               288        0.02       0          0          0          0         
T2-2             J5               J6               288        0.02       0          0          0          0         
T2-3             J6               J3               288        0.02       0          0          0          0         
T3-1             J3               J7               428        0.02       0          0          0          0         
T3-2             J7               J8               342        0.02       0          0          0          0         
T5               J8               J12              47.33      0.01       0          0          0          0         
T6               J13              J15              870        0.02       0          0          0          0         
T7               J14              J15              584        0.02       0          0          0          0         
T11              J20              J19              190        0.02       0          0          0          0         
T10-1            J16              J17              314        0.02       0          0          0          0         
T10-2            J17              J18              200        0.02       0          0          0          0         
T10-3            J18              J19              270        0.02       0          0          0          0         
T12              J19              J21              150        0.02       0          0          0          0         
T13              J22              J21              160        0.02       0          0          0          0         
T14-1            J21              J23              130        0.02       0          0          0          0         
T14-2            J23              J24              100        0.02       0          0          0          0         
T14-3            J24              J25              270        0.02       0          0          0          0         
T14-4            J25              J26              130        0.02       0          0          0          0         
T15-1            J27              J28              200        0.02       0          0          0          0         
T15-2            J28              J26              165        0.02       0          0          0          0         
T16              J26              J29              120        0.02       0          0          0          0         
T25-1            J30              J31              190        0.02       0          0          0          0         
T25-2            J31              J32              440        0.02       0          0          0          0         
T26-1            J33              J34              360        0.02       0          0          0          0         
T26-2            J34              J35              400        0.02       0          0          0          0         
T27              J35              J36              200        0.02       0          0          0          0         
T28              J36              J32              160        0.02       0          0          0          0         
T29-1            J32              J37              280        0.02       0          0          0          0         
T29-2            J37              J38              270        0.02       0          0          0          0         
T29-3            J38              J39              100        0.02       0          0          0          0         
T29-4            J39              J42              120        0.02       0          0          0          0         
T30-1            J40              J41              378        0.02       0          0          0          0         
T30-2            J41              J42              720        0.02       0          0          0          0         
T31-1            J42              J43              400        0.02       0          0          0          0         
T31-2            J43              J44              130        0.02       0          0          0          0         
T31-3            J44              J45              260        0.02       0          0          0          0         
T32-1            J45              J46              70         0.016      0          0          0          0         
T32-2            J46              J47              304        0.016      0          0          0          0         
T32-3            J47              J48              123        0.016      0          0          0          0         
T32-4            J48              J49              726        0.016      0          0          0          0         
T19-3            J50              J51              158        0.02       0          0          0          0         
T19-4            J51              J52              172        0.02       0          0          0          0         
T19-5            J52              J53              172        0.02       0          0          0          0         
T19-6            J53              J54              140        0.02       0          0          0          0         
T21              J55              J56              600        0.02       0          0          0          0         
T22              J57              J56              270        0.02       0          0          0          0         
T23-1            J56              J58              190        0.02       0          0          0          0         
T23-2            J58              J59              424        0.02       0          0          0          0         
T23-3            J59              J60              390        0.02       0          0          0          0         
T33              J49              Out2             50         0.016      0          0          0          0         
T8               J15              J12              210        0.05       0          0          0          0         
T9               J12              J29              187        0.035      0          0          0          0         
T17              J29              J63              233        0.02       0          0          0          0         
T18              J63              J54              620        0.016      0          0          0          0         
T20              J54              J60              340        0.016      0          0          0          0         
T24              J60              J49              580        0.016      0          0          0          0         

[XSECTIONS]
;;Link           Shape        Geom1            Geom2      Geom3      Geom4      Barrels   
;;-------------- ------------ ---------------- ---------- ---------- ---------- ----------
T4-1             CIRCULAR     1                0          0          0          1                    
T4-2             CIRCULAR     1                0          0          0          1                    
T4-3             CIRCULAR     1                0          0          0          1                    
T1-1             CIRCULAR     0.8              0          0          0          1                    
T1-2             CIRCULAR     0.8              0          0          0          1                    
T2-1             CIRCULAR     0.8              0          0          0          1                    
T2-2             CIRCULAR     0.8              0          0          0          1                    
T2-3             CIRCULAR     0.8              0          0          0          1                    
T3-1             CIRCULAR     0.8              0          0          0          3                    
T3-2             CIRCULAR     1                0          0          0          2                    
T5               RECT_OPEN    3                3          0          0          1                    
T6               CIRCULAR     1                0          0          0          1                    
T7               CIRCULAR     1.5              0          0          0          1                    
T11              CIRCULAR     0.4              0          0          0          1                    
T10-1            CIRCULAR     1.5              0          0          0          1                    
T10-2            RECT_CLOSED  1.5              2          0          0          1                    
T10-3            RECT_CLOSED  1.5              1.5        0          0          1                    
T12              CIRCULAR     1.5              0          0          0          1                    
T13              CIRCULAR     1                0          0          0          1                    
T14-1            RECT_CLOSED  1.1              2          0          0          1                    
T14-2            RECT_CLOSED  2                2          0          0          1                    
T14-3            RECT_CLOSED  1.8              2          0          0          1                    
T14-4            RECT_CLOSED  2.5              2          0          0          1                    
T15-1            CIRCULAR     0.8              0          0          0          1                    
T15-2            CIRCULAR     0.9              0          0          0          1                    
T16              RECT_CLOSED  2.5              2          0          0          1                    
T25-1            CIRCULAR     0.8              0          0          0          1                    
T25-2            CIRCULAR     1                0          0          0          1                    
T26-1            CIRCULAR     1                0          0          0          1                    
T26-2            CIRCULAR     1                0          0          0          1                    
T27              CIRCULAR     1                0          0          0          2                    
T28              RECT_CLOSED  1                1.2        0          0          1                    
T29-1            CIRCULAR     1.5              0          0          0          1                    
T29-2            CIRCULAR     1.5              0          0          0          1                    
T29-3            RECT_CLOSED  2.2              1.55       0          0          1                    
T29-4            RECT_CLOSED  2.4              1.4        0          0          1                    
T30-1            CIRCULAR     1                0          0          0          1                    
T30-2            CIRCULAR     1                0          0          0          1                    
T31-1            CIRCULAR     1.2              0          0          0          2                    
T31-2            CIRCULAR     1.2              0          0          0          2                    
T31-3            CIRCULAR     1.2              0          0          0          2                    
T32-1            RECT_CLOSED  1.7              3          0          0          1                    
T32-2            RECT_CLOSED  1.7              3          0          0          1                    
T32-3            RECT_CLOSED  1.7              3          0          0          1                    
T32-4            RECT_CLOSED  1.7              3          0          0          1                    
T19-3            CIRCULAR     1                0          0          0          1                    
T19-4            CIRCULAR     0.9              0          0          0          1                    
T19-5            CIRCULAR     0.9              0          0          0          1                    
T19-6            RECT_CLOSED  1.3              1.4        0          0          1                    
T21              RECT_CLOSED  1.2              1          0          0          1                    
T22              CIRCULAR     0.7              0          0          0          2                    
T23-1            CIRCULAR     1.5              0          0          0          1                    
T23-2            RECT_CLOSED  1.2              1.6        0          0          1                    
T23-3            RECT_CLOSED  1.5              2          0          0          1                    
T33              RECT_CLOSED  2                5          0          0          1                    
T8               RECT_OPEN    1.5              5          0          0          1                    
T9               RECT_OPEN    3.5              3          0          0          1                    
T17              RECT_OPEN    2.7              3          0          0          1                    
T18              RECT_CLOSED  2.2              4.5        0          0          1                    
T20              RECT_CLOSED  2.2              4.5        0          0          1                    
T24              RECT_CLOSED  2                5          0          0          1                    

[LOSSES]
;;Link           Inlet      Outlet     Average    Flap Gate 
;;-------------- ---------- ---------- ---------- ----------

[TIMESERIES]
;;Name           Date       Time       Value     
;;-------------- ---------- ---------- ----------
;2hr
2hrRainfall                 0:00       0.00      
2hrRainfall                 0:01       0.12      
2hrRainfall                 0:02       0.12      
2hrRainfall                 0:03       0.12      
2hrRainfall                 0:04       0.12      
2hrRainfall                 0:05       0.12      
2hrRainfall                 0:06       0.13      
2hrRainfall                 0:07       0.13      
2hrRainfall                 0:08       0.13      
2hrRainfall                 0:09       0.14      
2hrRainfall                 0:10       0.13      
2hrRainfall                 0:11       0.14      
2hrRainfall                 0:12       0.15      
2hrRainfall                 0:13       0.15      
2hrRainfall                 0:14       0.14      
2hrRainfall                 0:15       0.16      
2hrRainfall                 0:16       0.16      
2hrRainfall                 0:17       0.16      
2hrRainfall                 0:18       0.17      